REMARK  Name = C25H34N2O3
REMARK  16 active torsions:
REMARK  status: ('A' for Active; 'I' for Inactive)
REMARK    1  A    between atoms: C_1  and  O_14
REMARK    2  A    between atoms: C_12  and  O_15
REMARK    3  A    between atoms: O_14  and  C_19
REMARK    4  A    between atoms: O_15  and  C_16
REMARK    5  A    between atoms: C_16  and  C_17
REMARK    6  A    between atoms: C_17  and  N_22
REMARK    7  A    between atoms: C_19  and  C_20
REMARK    8  A    between atoms: C_20  and  N_21
REMARK    9  A    between atoms: N_21  and  C_27
REMARK   10  A    between atoms: N_21  and  C_28
REMARK   11  A    between atoms: N_22  and  C_23
REMARK   12  A    between atoms: N_22  and  C_25
REMARK   13  A    between atoms: C_23  and  C_24
REMARK   14  A    between atoms: C_25  and  C_26
REMARK   15  A    between atoms: C_27  and  C_30
REMARK   16  A    between atoms: C_28  and  C_29
REMARK                            x       y       z     vdW  Elec       q    Type
REMARK                         _______ _______ _______ _____ _____    ______ ____
ROOT
ATOM      1  C   UNL     1       3.472   0.122   0.132  0.00  0.00    +0.000 A 
ATOM      2  C   UNL     1       3.052   1.469   0.157  0.00  0.00    +0.000 A 
ATOM      3  C   UNL     1       1.687   1.819   0.114  0.00  0.00    +0.000 A 
ATOM      4  C   UNL     1       2.524  -0.900   0.100  0.00  0.00    +0.000 A 
ATOM      5  C   UNL     1       1.198  -0.527   0.051  0.00  0.00    +0.000 A 
ATOM      6  C   UNL     1       0.747   0.804   0.055  0.00  0.00    +0.000 A 
ATOM      7  C   UNL     1       0.015  -1.404  -0.041  0.00  0.00    +0.000 C 
ATOM      8  C   UNL     1      -1.158  -0.516  -0.099  0.00  0.00    +0.000 A 
ATOM      9  C   UNL     1      -0.700   0.812  -0.031  0.00  0.00    +0.000 A 
ATOM     10  C   UNL     1      -1.627   1.837  -0.080  0.00  0.00    +0.000 A 
ATOM     11  C   UNL     1      -2.989   1.503  -0.212  0.00  0.00    +0.000 A 
ATOM     12  C   UNL     1      -3.422   0.161  -0.279  0.00  0.00    +0.000 A 
ATOM     13  C   UNL     1      -2.486  -0.871  -0.227  0.00  0.00    +0.000 A 
ATOM     14  O   UNL     1       0.010  -2.616  -0.070  0.00  0.00    +0.000 OA
ENDROOT
BRANCH   1  15
ATOM     15  O   UNL     1       4.832  -0.096   0.158  0.00  0.00    +0.000 OA
BRANCH  15  16
ATOM     16  C   UNL     1       5.233  -1.275  -0.562  0.00  0.00    +0.000 C 
BRANCH  16  17
ATOM     17  C   UNL     1       6.766  -1.420  -0.592  0.00  0.00    +0.000 C 
BRANCH  17  18
ATOM     18  N   UNL     1       7.234  -2.640  -1.297  0.00  0.00    +0.000 N 
ATOM     19  H   UNL     1       6.791  -3.442  -0.848  0.00  0.00    +0.000 HD
BRANCH  18  20
ATOM     20  C   UNL     1       6.773  -2.731  -2.692  0.00  0.00    +0.000 C 
ATOM     21  C   UNL     1       7.334  -1.689  -3.653  0.00  0.00    +0.000 C 
ENDBRANCH  18  20
BRANCH  18  22
ATOM     22  C   UNL     1       8.689  -2.802  -1.137  0.00  0.00    +0.000 C 
ATOM     23  C   UNL     1       9.250  -4.085  -1.749  0.00  0.00    +0.000 C 
ENDBRANCH  18  22
ENDBRANCH  17  18
ENDBRANCH  16  17
ENDBRANCH  15  16
ENDBRANCH   1  15
BRANCH  12  24
ATOM     24  O   UNL     1      -4.774  -0.034  -0.439  0.00  0.00    +0.000 OA
BRANCH  24  25
ATOM     25  C   UNL     1      -5.258  -1.251   0.152  0.00  0.00    +0.000 C 
BRANCH  25  26
ATOM     26  C   UNL     1      -6.785  -1.376  -0.013  0.00  0.00    +0.000 C 
BRANCH  26  27
ATOM     27  N   UNL     1      -7.350  -2.616   0.575  0.00  0.00    +0.000 N 
ATOM     28  H   UNL     1      -6.868  -3.407   0.149  0.00  0.00    +0.000 HD
BRANCH  27  29
ATOM     29  C   UNL     1      -7.063  -2.772   2.010  0.00  0.00    +0.000 C 
ATOM     30  C   UNL     1      -7.720  -1.756   2.940  0.00  0.00    +0.000 C 
ENDBRANCH  27  29
BRANCH  27  31
ATOM     31  C   UNL     1      -8.778  -2.741   0.236  0.00  0.00    +0.000 C 
ATOM     32  C   UNL     1      -9.428  -4.036   0.720  0.00  0.00    +0.000 C 
ENDBRANCH  27  31
ENDBRANCH  26  27
ENDBRANCH  25  26
ENDBRANCH  24  25
ENDBRANCH  12  24
TORSDOF 12
