REMARK  Name = C16H28N2O2
REMARK  8 active torsions:
REMARK  status: ('A' for Active; 'I' for Inactive)
REMARK    1  A    between atoms: C_1  and  N_2
REMARK    2  A    between atoms: C_3  and  C_15
REMARK    3  A    between atoms: N_14  and  C_17
REMARK    4  A    between atoms: N_14  and  C_18
REMARK    5  A    between atoms: N_14  and  C_19
REMARK    6  A    between atoms: C_15  and  O_16
REMARK    7  A    between atoms: O_16  and  C_20
REMARK    8  A    between atoms: C_17  and  C_20
REMARK                            x       y       z     vdW  Elec       q    Type
REMARK                         _______ _______ _______ _____ _____    ______ ____
ROOT
ATOM      1  N   UNL     1       1.388   1.524   2.180  0.00  0.00    +0.000 N 
ATOM      2  C   UNL     1       1.160   1.340   3.531  0.00  0.00    +0.000 C 
ATOM      3  O   UNL     1       0.444   0.459   4.005  0.00  0.00    +0.000 OA
ATOM      4  H   UNL     1       2.050   2.201   1.909  0.00  0.00    +0.000 HD
ENDROOT
BRANCH   1   5
ATOM      5  C   UNL     1       0.701   0.769   1.130  0.00  0.00    +0.000 C 
ATOM      6  C   UNL     1       0.515   0.452  -1.391  0.00  0.00    +0.000 C 
ATOM      7  C   UNL     1      -1.535   0.239   0.054  0.00  0.00    +0.000 C 
ATOM      8  C   UNL     1       0.263  -1.528   0.140  0.00  0.00    +0.000 C 
ATOM      9  C   UNL     1      -0.826   1.021   1.170  0.00  0.00    +0.000 C 
ATOM     10  C   UNL     1       0.980  -0.750   1.254  0.00  0.00    +0.000 C 
ATOM     11  C   UNL     1       1.222   1.225  -0.261  0.00  0.00    +0.000 C 
ATOM     12  C   UNL     1      -1.249  -1.263   0.232  0.00  0.00    +0.000 C 
ATOM     13  C   UNL     1      -0.999   0.705  -1.308  0.00  0.00    +0.000 C 
ATOM     14  C   UNL     1       0.784  -1.052  -1.223  0.00  0.00    +0.000 C 
ENDBRANCH   1   5
BRANCH   2  15
ATOM     15  C   UNL     1       1.934   2.301   4.423  0.00  0.00    +0.000 C 
BRANCH  15  16
ATOM     16  O   UNL     1       1.654   3.656   4.085  0.00  0.00    +0.000 OA
BRANCH  16  17
ATOM     17  C   UNL     1       2.306   4.546   4.998  0.00  0.00    +0.000 C 
BRANCH  17  18
ATOM     18  C   UNL     1       1.929   5.994   4.655  0.00  0.00    +0.000 C 
BRANCH  18  19
ATOM     19  N   UNL     1       2.577   7.013   5.501  0.00  0.00    +0.000 N 
ATOM     20  C   UNL     1       4.036   6.989   5.371  0.00  0.00    +0.000 C 
ATOM     21  C   UNL     1       2.075   8.343   5.144  0.00  0.00    +0.000 C 
ATOM     22  H   UNL     1       2.349   6.798   6.471  0.00  0.00    +0.000 HD
ENDBRANCH  18  19
ENDBRANCH  17  18
ENDBRANCH  16  17
ENDBRANCH  15  16
ENDBRANCH   2  15
TORSDOF 6
