REMARK  Name = C26H27N3O5S
REMARK  11 active torsions:
REMARK  status: ('A' for Active; 'I' for Inactive)
REMARK    1  A    between atoms: C_1  and  C_2
REMARK    2  A    between atoms: C_2  and  C_3
REMARK    3  A    between atoms: C_2  and  C_21
REMARK    4  A    between atoms: C_2  and  C_22
REMARK    5  A    between atoms: C_5  and  N_6
REMARK    6  A    between atoms: C_8  and  C_9
REMARK    7  A    between atoms: C_12  and  N_13
REMARK    8  A    between atoms: N_13  and  S_32
REMARK    9  A    between atoms: C_18  and  O_20
REMARK   10  A    between atoms: C_19  and  O_20
REMARK   11  A    between atoms: S_32  and  C_33
REMARK                            x       y       z     vdW  Elec       q    Type
REMARK                         _______ _______ _______ _____ _____    ______ ____
ROOT
ATOM      1  C   UNL     1       2.908   0.586  -1.356  0.00  0.00    +0.000 A 
ATOM      2  C   UNL     1       3.596  -0.224  -2.286  0.00  0.00    +0.000 A 
ATOM      3  C   UNL     1       4.179   0.322  -3.417  0.00  0.00    +0.000 A 
ATOM      4  C   UNL     1       4.004   1.674  -3.679  0.00  0.00    +0.000 A 
ATOM      5  C   UNL     1       3.288   2.552  -2.834  0.00  0.00    +0.000 A 
ATOM      6  C   UNL     1       2.753   2.000  -1.644  0.00  0.00    +0.000 A 
ENDROOT
BRANCH   5   7
ATOM      7  C   UNL     1       3.144   3.935  -3.367  0.00  0.00    +0.000 A 
ATOM      8  C   UNL     1       4.234   4.541  -4.027  0.00  0.00    +0.000 A 
ATOM      9  C   UNL     1       4.056   5.648  -4.855  0.00  0.00    +0.000 A 
ATOM     10  C   UNL     1       1.097   7.531  -6.022  0.00  0.00    +0.000 A 
ATOM     11  C   UNL     1       0.494   7.735  -4.796  0.00  0.00    +0.000 A 
ATOM     12  C   UNL     1       0.739   6.774  -3.824  0.00  0.00    +0.000 A 
ATOM     13  C   UNL     1       1.811   5.885  -4.009  0.00  0.00    +0.000 A 
ATOM     14  C   UNL     1       1.937   4.652  -3.347  0.00  0.00    +0.000 A 
ATOM     15  C   UNL     1       2.799   6.252  -4.931  0.00  0.00    +0.000 A 
ATOM     16  C   UNL     1       2.437   7.150  -5.941  0.00  0.00    +0.000 A 
BRANCH  10  17
ATOM     17  N   UNL     1       0.351   6.613  -6.867  0.00  0.00    +0.000 N 
ATOM     18  H   UNL     1       0.718   5.709  -6.997  0.00  0.00    +0.000 HD
BRANCH  17  19
ATOM     19  S   UNL     1      -1.073   6.981  -7.626  0.00  0.00    +0.000 S 
ATOM     20  C   UNL     1      -2.378   6.371  -6.573  0.00  0.00    +0.000 C 
ATOM     21  O   UNL     1      -1.204   8.421  -7.709  0.00  0.00    +0.000 OA
ATOM     22  O   UNL     1      -1.085   6.152  -8.814  0.00  0.00    +0.000 OA
ENDBRANCH  17  19
ENDBRANCH  10  17
ENDBRANCH   5   7
BRANCH   3  23
ATOM     23  N   UNL     1       4.987  -0.463  -4.285  0.00  0.00    +0.000 N 
ATOM     24  N   UNL     1       7.018  -0.782  -5.430  0.00  0.00    +0.000 N 
ATOM     25  C   UNL     1       6.295  -0.013  -4.543  0.00  0.00    +0.000 A 
ATOM     26  O   UNL     1       6.829   0.972  -4.031  0.00  0.00    +0.000 OA
ATOM     27  O   UNL     1       7.242  -2.486  -6.913  0.00  0.00    +0.000 OA
ATOM     28  C   UNL     1       6.571  -1.884  -6.069  0.00  0.00    +0.000 A 
ATOM     29  C   UNL     1       5.202  -2.321  -5.754  0.00  0.00    +0.000 A 
ATOM     30  C   UNL     1       4.492  -1.612  -4.876  0.00  0.00    +0.000 A 
ATOM     31  H   UNL     1       7.943  -0.502  -5.614  0.00  0.00    +0.000 HD
ENDBRANCH   3  23
BRANCH   1  33
ATOM     32  C   UNL     1       0.955   0.106   0.243  0.00  0.00    +0.000 C 
ATOM     33  C   UNL     1       2.465  -0.070  -0.017  0.00  0.00    +0.000 C 
ATOM     34  C   UNL     1       2.694  -1.614   0.069  0.00  0.00    +0.000 C 
ATOM     35  C   UNL     1       3.338   0.520   1.114  0.00  0.00    +0.000 C 
ENDBRANCH   1  33
BRANCH   6  37
ATOM     36  C   UNL     1       2.318   4.003  -0.317  0.00  0.00    +0.000 C 
ATOM     37  O   UNL     1       1.963   2.699  -0.764  0.00  0.00    +0.000 OA
ENDBRANCH   6  37
TORSDOF 6
